# Generated by ABACUS ModuleIO::CifParser
data_?
_symmetry_space_group_name_H-M   'P 1'
_cell_length_a   4.64371070
_cell_length_b   4.64371070
_cell_length_c   2.97039360
_cell_angle_alpha  90.57296734
_cell_angle_beta  90.00000000
_cell_angle_gamma  90.00000000
_symmetry_Int_Tables_number   1
_chemical_formula_structural   TiO
_chemical_formula_sum   Ti2O4
_cell_volume    64.05051044
_cell_formula_units_Z   1
loop_
 _symmetry_equiv_pos_site_id
 _symmetry_equiv_pos_as_xyz
  1  'x, y, z'
loop_
 _atom_site_type_symbol
 _atom_site_label
 _atom_site_symmetry_multiplicity
 _atom_site_fract_x
 _atom_site_fract_y
 _atom_site_fract_z
 _atom_site_occupancy
 Ti  Ti0   1   0.00000000   0.00000000   0.00000000 1.0
 Ti  Ti1   1   0.50000000   0.50000000   0.50000000 1.0
  O   O2   1   0.30594968   0.30594554   0.99924964 1.0
  O   O3   1   0.69405032   0.69405446   0.00075036 1.0
  O   O4   1   0.19405032   0.80594554   0.49924964 1.0
  O   O5   1   0.80594968   0.19405446   0.50075036 1.0

